%NProc=4
%mem=4GB
# PBE1PBE/SDDAll scf=(maxcycle=512) opt=(cartesian,maxcycle=512)  

Cellular Automata job -34.4128104423

0 1 
8  -1.449561  -0.104294  0.034057
1  -1.926774  0.721350  -0.166265
1  -0.474353  -0.002385  -0.027029
8  1.297558  0.023839  -0.047898
1  1.765662  -0.830849  0.045556
1  1.851488  0.755521  0.258459


