%NProc=4
%mem=4GB
# PBE1PBE/SDDAll scf=(maxcycle=512) opt=(cartesian,maxcycle=512)  

Cellular Automata job -34.4117758606

0 1 
8  -1.249427  -0.022638  0.004102
1  -1.437573  0.920502  -0.035694
1  -2.077707  -0.545304  0.111232
8  1.421301  -0.003489  -0.099922
1  0.456596  -0.231034  -0.157666
1  1.683696  0.064852  0.848693


