%NProc=4
%mem=4GB
# PBE1PBE/SDDAll scf=(maxcycle=512) opt=(cartesian,maxcycle=512)  

Cellular Automata job -34.4133483937

0 1 
8  1.445723  -0.044357  0.099928
1  0.466436  0.058509  0.144501
1  1.783103  0.315758  -0.738536
8  -1.283122  0.024535  -0.055717
1  -1.640740  -0.882691  -0.071516
1  -1.909604  0.667003  0.311863


