%NProc=4
%mem=4GB
# PBE1PBE/SDDAll scf=(maxcycle=512) opt=(cartesian,maxcycle=512)  

Cellular Automata job -34.4130305908

0 1 
8  -1.277193  0.025697  -0.044200
1  -1.872836  0.732258  0.264504
1  -1.708663  -0.852398  -0.005310
8  1.426523  -0.101403  0.042202
1  1.935624  0.678544  -0.227150
1  0.451234  0.047242  -0.016060


