%NProc=4
%mem=4GB
# PBE1PBE/SDDAll scf=(maxcycle=512) opt=(cartesian,maxcycle=512)  

Cellular Automata job 9

0 1 
O          2.39118        0.07102        3.03491
H          1.56443        0.20730        3.55708
H          2.07536       -0.11421        2.11801
O         -1.12153        0.37411        2.12365
H         -1.85588        0.88708        1.70853
H         -0.80063       -0.22188        1.40489

